[General]
sim-time-limit = 100000s
**.result-recording-modes = all

[Config Topologia1]
network = Topologia1
**.totalNodes = 7